data_silicon
_chemical_name_mineral silicon1
_space_group_IT_number 1
_symmetry_int_tables_number 1
_symmetry_space_group_name_Hall 'P 1'
_symmetry_space_group_name_H-M 'P 1'
_symmetry_cell_setting triclinic
_cell_length_a 3.84
_cell_length_b 3.84
_cell_length_c 3.84
_cell_angle_alpha 60
_cell_angle_beta 60
_cell_angle_gamma 60
loop_
_symmetry_equiv_pos_as_xyz
'x, y, z'
loop_
_atom_site_label
_atom_site_fract_x
_atom_site_fract_y
_atom_site_fract_z
Si1 0.000000 0.000000 0.000000 
Si2 0.250000 0.250000 0.250000
